<routes>
        <vType id="car" accel="0.8" decel="4.5" sigma="0.5" length="5" minGap="2.5" maxSpeed="100" guiShape="passenger" />
        <vType id="bus" accel="0.8" decel="4.5" sigma="0.5" length="12" minGap="3" maxSpeed="80" guiShape="bus" />

        <route id="right" edges="51o 1i 2o 52i" />
        <route id="left" edges="52o 2i 1o 51i" />
        <route id="down" edges="54o 4i 3o 53i" />
        <route id="up" edges="53o 3i 4o 54i" />

        <route id="turn_left1" edges="51o 1i 4o 54i" />
        <route id="turn_left2" edges="52o 2i 3o 53i" />
        <route id="turn_left3" edges="53o 3i 1o 51i" />
        <route id="turn_left4" edges="54o 4i 2o 52i" />

        <route id="turn_right1" edges="51o 1i 3o 53i" />
        <route id="turn_right2" edges="52o 2i 4o 54i" />
        <route id="turn_right3" edges="53o 3i 2o 52i" />
        <route id="turn_right4" edges="54o 4i 1o 51i" />
        
<vehicle id="car_0" type="car" route="down" depart="0" departLane="random"/>
<vehicle id="bus_1" type="bus" route="turn_right2" depart="0" departLane="random"/>
<vehicle id="bus_2" type="bus" route="down" depart="1" departLane="random"/>
<vehicle id="bus_3" type="bus" route="right" depart="1" departLane="random"/>
<vehicle id="bus_4" type="bus" route="turn_left1" depart="2" departLane="random"/>
<vehicle id="car_5" type="car" route="turn_left3" depart="2" departLane="random"/>
<vehicle id="car_6" type="car" route="right" depart="3" departLane="random"/>
<vehicle id="bus_7" type="bus" route="left" depart="5" departLane="random"/>
<vehicle id="car_8" type="car" route="turn_right3" depart="5" departLane="random"/>
<vehicle id="car_9" type="car" route="turn_left1" depart="6" departLane="random"/>
<vehicle id="car_10" type="car" route="right" depart="6" departLane="random"/>
<vehicle id="car_11" type="car" route="right" depart="7" departLane="random"/>
<vehicle id="bus_12" type="bus" route="up" depart="7" departLane="random"/>
<vehicle id="car_13" type="car" route="down" depart="8" departLane="random"/>
<vehicle id="car_14" type="car" route="down" depart="8" departLane="random"/>
<vehicle id="bus_15" type="bus" route="turn_right3" depart="8" departLane="random"/>
<vehicle id="bus_16" type="bus" route="turn_left4" depart="8" departLane="random"/>
<vehicle id="car_17" type="car" route="up" depart="9" departLane="random"/>
<vehicle id="car_18" type="car" route="turn_left3" depart="9" departLane="random"/>
<vehicle id="bus_19" type="bus" route="right" depart="10" departLane="random"/>
<vehicle id="bus_20" type="bus" route="turn_left1" depart="10" departLane="random"/>
<vehicle id="car_21" type="car" route="turn_right4" depart="12" departLane="random"/>
<vehicle id="bus_22" type="bus" route="turn_left3" depart="12" departLane="random"/>
<vehicle id="bus_23" type="bus" route="turn_left3" depart="13" departLane="random"/>
<vehicle id="bus_24" type="bus" route="up" depart="15" departLane="random"/>
<vehicle id="car_25" type="car" route="turn_right2" depart="16" departLane="random"/>
<vehicle id="car_26" type="car" route="left" depart="17" departLane="random"/>
<vehicle id="bus_27" type="bus" route="turn_left2" depart="18" departLane="random"/>
<vehicle id="car_28" type="car" route="turn_left1" depart="19" departLane="random"/>
<vehicle id="bus_29" type="bus" route="right" depart="20" departLane="random"/>
<vehicle id="bus_30" type="bus" route="turn_right4" depart="20" departLane="random"/>
<vehicle id="car_31" type="car" route="turn_left1" depart="21" departLane="random"/>
<vehicle id="car_32" type="car" route="down" depart="23" departLane="random"/>
<vehicle id="car_33" type="car" route="turn_left3" depart="23" departLane="random"/>
<vehicle id="car_34" type="car" route="turn_right1" depart="24" departLane="random"/>
<vehicle id="bus_35" type="bus" route="up" depart="24" departLane="random"/>
<vehicle id="bus_36" type="bus" route="turn_right3" depart="25" departLane="random"/>
<vehicle id="car_37" type="car" route="turn_right1" depart="26" departLane="random"/>
<vehicle id="car_38" type="car" route="turn_left2" depart="26" departLane="random"/>
<vehicle id="bus_39" type="bus" route="turn_right4" depart="27" departLane="random"/>
<vehicle id="car_40" type="car" route="turn_right4" depart="27" departLane="random"/>
<vehicle id="car_41" type="car" route="up" depart="28" departLane="random"/>
<vehicle id="bus_42" type="bus" route="turn_left1" depart="28" departLane="random"/>
<vehicle id="bus_43" type="bus" route="turn_left2" depart="28" departLane="random"/>
<vehicle id="car_44" type="car" route="turn_left1" depart="30" departLane="random"/>
<vehicle id="car_45" type="car" route="turn_left4" depart="30" departLane="random"/>
<vehicle id="bus_46" type="bus" route="turn_left4" depart="31" departLane="random"/>
<vehicle id="car_47" type="car" route="right" depart="31" departLane="random"/>
<vehicle id="bus_48" type="bus" route="right" depart="32" departLane="random"/>
<vehicle id="bus_49" type="bus" route="turn_left4" depart="32" departLane="random"/>
<vehicle id="bus_50" type="bus" route="turn_right2" depart="33" departLane="random"/>
<vehicle id="bus_51" type="bus" route="turn_left2" depart="33" departLane="random"/>
<vehicle id="car_52" type="car" route="up" depart="34" departLane="random"/>
<vehicle id="bus_53" type="bus" route="up" depart="34" departLane="random"/>
<vehicle id="car_54" type="car" route="turn_right4" depart="35" departLane="random"/>
<vehicle id="bus_55" type="bus" route="turn_left2" depart="35" departLane="random"/>
<vehicle id="bus_56" type="bus" route="turn_left1" depart="35" departLane="random"/>
<vehicle id="car_57" type="car" route="right" depart="36" departLane="random"/>
<vehicle id="bus_58" type="bus" route="turn_right4" depart="36" departLane="random"/>
<vehicle id="bus_59" type="bus" route="turn_left2" depart="37" departLane="random"/>
<vehicle id="car_60" type="car" route="turn_left4" depart="37" departLane="random"/>
<vehicle id="bus_61" type="bus" route="turn_left3" depart="37" departLane="random"/>
<vehicle id="car_62" type="car" route="turn_left4" depart="38" departLane="random"/>
<vehicle id="car_63" type="car" route="turn_left1" depart="39" departLane="random"/>
<vehicle id="car_64" type="car" route="left" depart="39" departLane="random"/>
<vehicle id="car_65" type="car" route="turn_left1" depart="40" departLane="random"/>
<vehicle id="bus_66" type="bus" route="down" depart="40" departLane="random"/>
<vehicle id="car_67" type="car" route="turn_left3" depart="42" departLane="random"/>
<vehicle id="car_68" type="car" route="left" depart="45" departLane="random"/>
<vehicle id="bus_69" type="bus" route="left" depart="45" departLane="random"/>
<vehicle id="car_70" type="car" route="right" depart="45" departLane="random"/>
<vehicle id="car_71" type="car" route="turn_right1" depart="47" departLane="random"/>
<vehicle id="car_72" type="car" route="turn_right1" depart="48" departLane="random"/>
<vehicle id="bus_73" type="bus" route="turn_right1" depart="49" departLane="random"/>
<vehicle id="car_74" type="car" route="turn_right3" depart="50" departLane="random"/>
<vehicle id="car_75" type="car" route="turn_left2" depart="50" departLane="random"/>
<vehicle id="bus_76" type="bus" route="turn_right4" depart="51" departLane="random"/>
<vehicle id="car_77" type="car" route="turn_right3" depart="53" departLane="random"/>
<vehicle id="bus_78" type="bus" route="up" depart="53" departLane="random"/>
<vehicle id="bus_79" type="bus" route="turn_right3" depart="53" departLane="random"/>
<vehicle id="bus_80" type="bus" route="down" depart="53" departLane="random"/>
<vehicle id="bus_81" type="bus" route="turn_left4" depart="55" departLane="random"/>
<vehicle id="bus_82" type="bus" route="left" depart="55" departLane="random"/>
<vehicle id="bus_83" type="bus" route="left" depart="56" departLane="random"/>
<vehicle id="bus_84" type="bus" route="down" depart="57" departLane="random"/>
<vehicle id="car_85" type="car" route="left" depart="58" departLane="random"/>
<vehicle id="car_86" type="car" route="turn_right1" depart="58" departLane="random"/>
<vehicle id="bus_87" type="bus" route="down" depart="59" departLane="random"/>
<vehicle id="car_88" type="car" route="turn_left1" depart="59" departLane="random"/>
<vehicle id="bus_89" type="bus" route="right" depart="60" departLane="random"/>
<vehicle id="bus_90" type="bus" route="turn_left4" depart="60" departLane="random"/>
<vehicle id="car_91" type="car" route="turn_left3" depart="60" departLane="random"/>
<vehicle id="car_92" type="car" route="turn_right4" depart="61" departLane="random"/>
<vehicle id="bus_93" type="bus" route="left" depart="62" departLane="random"/>
<vehicle id="bus_94" type="bus" route="turn_left3" depart="64" departLane="random"/>
<vehicle id="bus_95" type="bus" route="down" depart="64" departLane="random"/>
<vehicle id="bus_96" type="bus" route="left" depart="65" departLane="random"/>
<vehicle id="bus_97" type="bus" route="turn_right4" depart="66" departLane="random"/>
<vehicle id="bus_98" type="bus" route="right" depart="66" departLane="random"/>
<vehicle id="bus_99" type="bus" route="turn_left1" depart="68" departLane="random"/>
<vehicle id="car_100" type="car" route="turn_right2" depart="68" departLane="random"/>
<vehicle id="car_101" type="car" route="turn_right2" depart="68" departLane="random"/>
<vehicle id="car_102" type="car" route="turn_left2" depart="69" departLane="random"/>
<vehicle id="bus_103" type="bus" route="turn_left3" depart="69" departLane="random"/>
<vehicle id="car_104" type="car" route="turn_right1" depart="70" departLane="random"/>
<vehicle id="bus_105" type="bus" route="turn_left2" depart="70" departLane="random"/>
<vehicle id="bus_106" type="bus" route="up" depart="70" departLane="random"/>
<vehicle id="bus_107" type="bus" route="down" depart="71" departLane="random"/>
<vehicle id="car_108" type="car" route="turn_right3" depart="71" departLane="random"/>
<vehicle id="car_109" type="car" route="down" depart="72" departLane="random"/>
<vehicle id="bus_110" type="bus" route="turn_right1" depart="73" departLane="random"/>
<vehicle id="car_111" type="car" route="turn_left4" depart="74" departLane="random"/>
<vehicle id="bus_112" type="bus" route="turn_right2" depart="74" departLane="random"/>
<vehicle id="bus_113" type="bus" route="right" depart="75" departLane="random"/>
<vehicle id="bus_114" type="bus" route="turn_left1" depart="75" departLane="random"/>
<vehicle id="car_115" type="car" route="left" depart="75" departLane="random"/>
<vehicle id="car_116" type="car" route="turn_right2" depart="76" departLane="random"/>
<vehicle id="car_117" type="car" route="down" depart="76" departLane="random"/>
<vehicle id="bus_118" type="bus" route="turn_right3" depart="76" departLane="random"/>
<vehicle id="car_119" type="car" route="turn_left1" depart="78" departLane="random"/>
<vehicle id="car_120" type="car" route="right" depart="78" departLane="random"/>
<vehicle id="car_121" type="car" route="turn_left3" depart="79" departLane="random"/>
<vehicle id="bus_122" type="bus" route="up" depart="80" departLane="random"/>
<vehicle id="bus_123" type="bus" route="right" depart="80" departLane="random"/>
<vehicle id="car_124" type="car" route="turn_left4" depart="81" departLane="random"/>
<vehicle id="car_125" type="car" route="turn_right2" depart="81" departLane="random"/>
<vehicle id="bus_126" type="bus" route="down" depart="81" departLane="random"/>
<vehicle id="car_127" type="car" route="turn_left3" depart="82" departLane="random"/>
<vehicle id="bus_128" type="bus" route="right" depart="82" departLane="random"/>
<vehicle id="bus_129" type="bus" route="turn_left4" depart="83" departLane="random"/>
<vehicle id="bus_130" type="bus" route="turn_left4" depart="83" departLane="random"/>
<vehicle id="bus_131" type="bus" route="left" depart="85" departLane="random"/>
<vehicle id="car_132" type="car" route="left" depart="86" departLane="random"/>
<vehicle id="bus_133" type="bus" route="right" depart="86" departLane="random"/>
<vehicle id="bus_134" type="bus" route="left" depart="87" departLane="random"/>
<vehicle id="car_135" type="car" route="turn_right3" depart="87" departLane="random"/>
<vehicle id="bus_136" type="bus" route="turn_right3" depart="88" departLane="random"/>
<vehicle id="car_137" type="car" route="turn_left3" depart="88" departLane="random"/>
<vehicle id="bus_138" type="bus" route="down" depart="89" departLane="random"/>
<vehicle id="car_139" type="car" route="right" depart="89" departLane="random"/>
<vehicle id="bus_140" type="bus" route="turn_right2" depart="90" departLane="random"/>
<vehicle id="bus_141" type="bus" route="up" depart="91" departLane="random"/>
<vehicle id="car_142" type="car" route="turn_right3" depart="91" departLane="random"/>
<vehicle id="bus_143" type="bus" route="turn_left4" depart="92" departLane="random"/>
<vehicle id="car_144" type="car" route="turn_right3" depart="93" departLane="random"/>
<vehicle id="bus_145" type="bus" route="right" depart="94" departLane="random"/>
<vehicle id="car_146" type="car" route="turn_right3" depart="95" departLane="random"/>
<vehicle id="bus_147" type="bus" route="turn_left2" depart="95" departLane="random"/>
<vehicle id="car_148" type="car" route="left" depart="95" departLane="random"/>
<vehicle id="bus_149" type="bus" route="left" depart="97" departLane="random"/>
<vehicle id="bus_150" type="bus" route="turn_left3" depart="97" departLane="random"/>
<vehicle id="bus_151" type="bus" route="turn_left3" depart="97" departLane="random"/>
<vehicle id="bus_152" type="bus" route="turn_left2" depart="98" departLane="random"/>
<vehicle id="car_153" type="car" route="up" depart="99" departLane="random"/>
<vehicle id="car_154" type="car" route="turn_right2" depart="100" departLane="random"/>
<vehicle id="car_155" type="car" route="down" depart="101" departLane="random"/>
<vehicle id="car_156" type="car" route="turn_right2" depart="101" departLane="random"/>
<vehicle id="bus_157" type="bus" route="turn_right2" depart="102" departLane="random"/>
<vehicle id="car_158" type="car" route="turn_left3" depart="102" departLane="random"/>
<vehicle id="car_159" type="car" route="turn_right1" depart="103" departLane="random"/>
<vehicle id="bus_160" type="bus" route="turn_right1" depart="103" departLane="random"/>
<vehicle id="car_161" type="car" route="turn_right4" depart="103" departLane="random"/>
<vehicle id="car_162" type="car" route="turn_left4" depart="104" departLane="random"/>
<vehicle id="bus_163" type="bus" route="turn_right2" depart="105" departLane="random"/>
<vehicle id="car_164" type="car" route="turn_left3" depart="105" departLane="random"/>
<vehicle id="car_165" type="car" route="up" depart="105" departLane="random"/>
<vehicle id="bus_166" type="bus" route="right" depart="106" departLane="random"/>
<vehicle id="car_167" type="car" route="turn_left1" depart="107" departLane="random"/>
<vehicle id="car_168" type="car" route="turn_left1" depart="107" departLane="random"/>
<vehicle id="car_169" type="car" route="left" depart="109" departLane="random"/>
<vehicle id="bus_170" type="bus" route="right" depart="109" departLane="random"/>
<vehicle id="bus_171" type="bus" route="turn_left4" depart="111" departLane="random"/>
<vehicle id="car_172" type="car" route="turn_right4" depart="112" departLane="random"/>
<vehicle id="car_173" type="car" route="turn_left1" depart="113" departLane="random"/>
<vehicle id="bus_174" type="bus" route="up" depart="113" departLane="random"/>
<vehicle id="bus_175" type="bus" route="up" depart="114" departLane="random"/>
<vehicle id="car_176" type="car" route="left" depart="114" departLane="random"/>
<vehicle id="bus_177" type="bus" route="up" depart="114" departLane="random"/>
<vehicle id="car_178" type="car" route="turn_right2" depart="115" departLane="random"/>
<vehicle id="car_179" type="car" route="left" depart="115" departLane="random"/>
<vehicle id="car_180" type="car" route="turn_left4" depart="115" departLane="random"/>
<vehicle id="bus_181" type="bus" route="turn_left3" depart="116" departLane="random"/>
<vehicle id="bus_182" type="bus" route="down" depart="117" departLane="random"/>
<vehicle id="bus_183" type="bus" route="turn_left1" depart="118" departLane="random"/>
<vehicle id="bus_184" type="bus" route="left" depart="118" departLane="random"/>
<vehicle id="bus_185" type="bus" route="turn_left4" depart="119" departLane="random"/>
<vehicle id="bus_186" type="bus" route="turn_right3" depart="120" departLane="random"/>
<vehicle id="bus_187" type="bus" route="up" depart="121" departLane="random"/>
<vehicle id="car_188" type="car" route="up" depart="121" departLane="random"/>
<vehicle id="bus_189" type="bus" route="turn_left1" depart="123" departLane="random"/>
<vehicle id="car_190" type="car" route="turn_right4" depart="123" departLane="random"/>
<vehicle id="car_191" type="car" route="turn_right1" depart="123" departLane="random"/>
<vehicle id="bus_192" type="bus" route="turn_left4" depart="124" departLane="random"/>
<vehicle id="bus_193" type="bus" route="turn_left3" depart="124" departLane="random"/>
<vehicle id="car_194" type="car" route="turn_left4" depart="124" departLane="random"/>
<vehicle id="bus_195" type="bus" route="up" depart="125" departLane="random"/>
<vehicle id="car_196" type="car" route="right" depart="125" departLane="random"/>
<vehicle id="car_197" type="car" route="left" depart="125" departLane="random"/>
<vehicle id="bus_198" type="bus" route="turn_left4" depart="126" departLane="random"/>
<vehicle id="bus_199" type="bus" route="turn_right3" depart="128" departLane="random"/>
<vehicle id="bus_200" type="bus" route="right" depart="128" departLane="random"/>
<vehicle id="car_201" type="car" route="turn_left4" depart="129" departLane="random"/>
<vehicle id="car_202" type="car" route="turn_right2" depart="129" departLane="random"/>
<vehicle id="bus_203" type="bus" route="turn_left1" depart="129" departLane="random"/>
<vehicle id="car_204" type="car" route="turn_right2" depart="130" departLane="random"/>
<vehicle id="bus_205" type="bus" route="turn_right2" depart="130" departLane="random"/>
<vehicle id="car_206" type="car" route="turn_right1" depart="132" departLane="random"/>
<vehicle id="bus_207" type="bus" route="down" depart="132" departLane="random"/>
<vehicle id="bus_208" type="bus" route="turn_right1" depart="133" departLane="random"/>
<vehicle id="bus_209" type="bus" route="turn_right3" depart="133" departLane="random"/>
<vehicle id="bus_210" type="bus" route="right" depart="134" departLane="random"/>
<vehicle id="car_211" type="car" route="turn_left2" depart="135" departLane="random"/>
<vehicle id="car_212" type="car" route="turn_right4" depart="136" departLane="random"/>
<vehicle id="bus_213" type="bus" route="turn_right4" depart="136" departLane="random"/>
<vehicle id="bus_214" type="bus" route="turn_left4" depart="136" departLane="random"/>
<vehicle id="bus_215" type="bus" route="left" depart="136" departLane="random"/>
<vehicle id="car_216" type="car" route="turn_right2" depart="136" departLane="random"/>
<vehicle id="bus_217" type="bus" route="turn_right1" depart="136" departLane="random"/>
<vehicle id="bus_218" type="bus" route="turn_right2" depart="137" departLane="random"/>
<vehicle id="car_219" type="car" route="left" depart="138" departLane="random"/>
<vehicle id="car_220" type="car" route="turn_right2" depart="139" departLane="random"/>
<vehicle id="bus_221" type="bus" route="right" depart="140" departLane="random"/>
<vehicle id="car_222" type="car" route="down" depart="140" departLane="random"/>
<vehicle id="car_223" type="car" route="turn_right4" depart="140" departLane="random"/>
<vehicle id="car_224" type="car" route="turn_right1" depart="141" departLane="random"/>
<vehicle id="bus_225" type="bus" route="turn_left4" depart="141" departLane="random"/>
<vehicle id="car_226" type="car" route="left" depart="144" departLane="random"/>
<vehicle id="bus_227" type="bus" route="up" depart="146" departLane="random"/>
<vehicle id="car_228" type="car" route="down" depart="146" departLane="random"/>
<vehicle id="car_229" type="car" route="turn_right4" depart="147" departLane="random"/>
<vehicle id="bus_230" type="bus" route="turn_right4" depart="148" departLane="random"/>
<vehicle id="car_231" type="car" route="left" depart="149" departLane="random"/>
<vehicle id="bus_232" type="bus" route="down" depart="150" departLane="random"/>
<vehicle id="car_233" type="car" route="turn_right4" depart="153" departLane="random"/>
<vehicle id="bus_234" type="bus" route="turn_right4" depart="153" departLane="random"/>
<vehicle id="car_235" type="car" route="up" depart="154" departLane="random"/>
<vehicle id="bus_236" type="bus" route="turn_left4" depart="155" departLane="random"/>
<vehicle id="bus_237" type="bus" route="turn_right2" depart="155" departLane="random"/>
<vehicle id="car_238" type="car" route="turn_right4" depart="156" departLane="random"/>
<vehicle id="bus_239" type="bus" route="left" depart="158" departLane="random"/>
<vehicle id="car_240" type="car" route="turn_right2" depart="158" departLane="random"/>
<vehicle id="car_241" type="car" route="turn_right2" depart="159" departLane="random"/>
<vehicle id="car_242" type="car" route="turn_right3" depart="159" departLane="random"/>
<vehicle id="bus_243" type="bus" route="right" depart="160" departLane="random"/>
<vehicle id="bus_244" type="bus" route="right" depart="161" departLane="random"/>
<vehicle id="bus_245" type="bus" route="up" depart="163" departLane="random"/>
<vehicle id="bus_246" type="bus" route="turn_left2" depart="164" departLane="random"/>
<vehicle id="bus_247" type="bus" route="turn_right1" depart="164" departLane="random"/>
<vehicle id="car_248" type="car" route="turn_left3" depart="165" departLane="random"/>
<vehicle id="car_249" type="car" route="turn_right1" depart="165" departLane="random"/>
<vehicle id="car_250" type="car" route="turn_left2" depart="166" departLane="random"/>
<vehicle id="bus_251" type="bus" route="turn_left1" depart="167" departLane="random"/>
<vehicle id="bus_252" type="bus" route="turn_right2" depart="167" departLane="random"/>
<vehicle id="bus_253" type="bus" route="turn_left1" depart="168" departLane="random"/>
<vehicle id="bus_254" type="bus" route="right" depart="168" departLane="random"/>
<vehicle id="car_255" type="car" route="turn_left2" depart="168" departLane="random"/>
<vehicle id="car_256" type="car" route="turn_right1" depart="169" departLane="random"/>
<vehicle id="car_257" type="car" route="right" depart="169" departLane="random"/>
<vehicle id="bus_258" type="bus" route="turn_left1" depart="172" departLane="random"/>
<vehicle id="bus_259" type="bus" route="right" depart="173" departLane="random"/>
<vehicle id="bus_260" type="bus" route="turn_right4" depart="174" departLane="random"/>
<vehicle id="bus_261" type="bus" route="turn_left3" depart="176" departLane="random"/>
<vehicle id="bus_262" type="bus" route="turn_left2" depart="176" departLane="random"/>
<vehicle id="car_263" type="car" route="turn_right1" depart="177" departLane="random"/>
<vehicle id="car_264" type="car" route="turn_left4" depart="178" departLane="random"/>
<vehicle id="car_265" type="car" route="turn_right2" depart="178" departLane="random"/>
<vehicle id="car_266" type="car" route="left" depart="178" departLane="random"/>
<vehicle id="bus_267" type="bus" route="left" depart="179" departLane="random"/>
<vehicle id="bus_268" type="bus" route="turn_left2" depart="179" departLane="random"/>
<vehicle id="bus_269" type="bus" route="turn_right3" depart="180" departLane="random"/>
<vehicle id="bus_270" type="bus" route="turn_right1" depart="180" departLane="random"/>
<vehicle id="bus_271" type="bus" route="turn_right1" depart="180" departLane="random"/>
<vehicle id="bus_272" type="bus" route="turn_right3" depart="182" departLane="random"/>
<vehicle id="car_273" type="car" route="turn_right1" depart="182" departLane="random"/>
<vehicle id="bus_274" type="bus" route="turn_left4" depart="184" departLane="random"/>
<vehicle id="car_275" type="car" route="left" depart="186" departLane="random"/>
<vehicle id="car_276" type="car" route="down" depart="187" departLane="random"/>
<vehicle id="bus_277" type="bus" route="turn_left4" depart="189" departLane="random"/>
<vehicle id="car_278" type="car" route="turn_right1" depart="190" departLane="random"/>
<vehicle id="bus_279" type="bus" route="turn_left4" depart="190" departLane="random"/>
<vehicle id="car_280" type="car" route="down" depart="191" departLane="random"/>
<vehicle id="bus_281" type="bus" route="turn_right4" depart="191" departLane="random"/>
<vehicle id="car_282" type="car" route="turn_right4" depart="191" departLane="random"/>
<vehicle id="bus_283" type="bus" route="left" depart="193" departLane="random"/>
<vehicle id="bus_284" type="bus" route="left" depart="194" departLane="random"/>
<vehicle id="car_285" type="car" route="turn_left3" depart="195" departLane="random"/>
<vehicle id="car_286" type="car" route="up" depart="195" departLane="random"/>
<vehicle id="bus_287" type="bus" route="right" depart="195" departLane="random"/>
<vehicle id="bus_288" type="bus" route="up" depart="195" departLane="random"/>
<vehicle id="car_289" type="car" route="left" depart="197" departLane="random"/>
<vehicle id="bus_290" type="bus" route="turn_left3" depart="197" departLane="random"/>
<vehicle id="car_291" type="car" route="left" depart="201" departLane="random"/>
<vehicle id="car_292" type="car" route="turn_right1" depart="202" departLane="random"/>
<vehicle id="car_293" type="car" route="down" depart="203" departLane="random"/>
<vehicle id="car_294" type="car" route="right" depart="203" departLane="random"/>
<vehicle id="bus_295" type="bus" route="turn_right2" depart="204" departLane="random"/>
<vehicle id="car_296" type="car" route="turn_right2" depart="205" departLane="random"/>
<vehicle id="bus_297" type="bus" route="turn_right2" depart="206" departLane="random"/>
<vehicle id="bus_298" type="bus" route="left" depart="206" departLane="random"/>
<vehicle id="car_299" type="car" route="left" depart="207" departLane="random"/>
<vehicle id="car_300" type="car" route="turn_left1" depart="207" departLane="random"/>
<vehicle id="bus_301" type="bus" route="turn_left1" depart="208" departLane="random"/>
<vehicle id="bus_302" type="bus" route="turn_right3" depart="209" departLane="random"/>
<vehicle id="bus_303" type="bus" route="up" depart="210" departLane="random"/>
<vehicle id="bus_304" type="bus" route="turn_right2" depart="211" departLane="random"/>
<vehicle id="bus_305" type="bus" route="turn_right4" depart="211" departLane="random"/>
<vehicle id="car_306" type="car" route="turn_right1" depart="212" departLane="random"/>
<vehicle id="bus_307" type="bus" route="turn_left2" depart="212" departLane="random"/>
<vehicle id="bus_308" type="bus" route="turn_right4" depart="212" departLane="random"/>
<vehicle id="car_309" type="car" route="turn_left3" depart="213" departLane="random"/>
<vehicle id="car_310" type="car" route="turn_right4" depart="213" departLane="random"/>
<vehicle id="bus_311" type="bus" route="turn_left4" depart="214" departLane="random"/>
<vehicle id="bus_312" type="bus" route="turn_left4" depart="214" departLane="random"/>
<vehicle id="bus_313" type="bus" route="turn_left4" depart="215" departLane="random"/>
<vehicle id="car_314" type="car" route="turn_right2" depart="215" departLane="random"/>
<vehicle id="car_315" type="car" route="turn_right1" depart="216" departLane="random"/>
<vehicle id="bus_316" type="bus" route="turn_right4" depart="216" departLane="random"/>
<vehicle id="bus_317" type="bus" route="turn_right3" depart="216" departLane="random"/>
<vehicle id="car_318" type="car" route="turn_right2" depart="218" departLane="random"/>
<vehicle id="bus_319" type="bus" route="turn_left4" depart="219" departLane="random"/>
<vehicle id="car_320" type="car" route="right" depart="219" departLane="random"/>
<vehicle id="car_321" type="car" route="turn_right1" depart="219" departLane="random"/>
<vehicle id="bus_322" type="bus" route="turn_left1" depart="219" departLane="random"/>
<vehicle id="bus_323" type="bus" route="right" depart="220" departLane="random"/>
<vehicle id="car_324" type="car" route="turn_right4" depart="221" departLane="random"/>
<vehicle id="car_325" type="car" route="down" depart="222" departLane="random"/>
<vehicle id="bus_326" type="bus" route="turn_left1" depart="222" departLane="random"/>
<vehicle id="car_327" type="car" route="turn_left3" depart="223" departLane="random"/>
<vehicle id="bus_328" type="bus" route="turn_right1" depart="223" departLane="random"/>
<vehicle id="car_329" type="car" route="turn_left2" depart="224" departLane="random"/>
<vehicle id="car_330" type="car" route="turn_left2" depart="224" departLane="random"/>
<vehicle id="bus_331" type="bus" route="turn_right1" depart="225" departLane="random"/>
<vehicle id="car_332" type="car" route="turn_right3" depart="225" departLane="random"/>
<vehicle id="car_333" type="car" route="turn_right4" depart="228" departLane="random"/>
<vehicle id="car_334" type="car" route="turn_right4" depart="228" departLane="random"/>
<vehicle id="bus_335" type="bus" route="turn_right3" depart="229" departLane="random"/>
<vehicle id="bus_336" type="bus" route="turn_left2" depart="230" departLane="random"/>
<vehicle id="bus_337" type="bus" route="right" depart="230" departLane="random"/>
<vehicle id="bus_338" type="bus" route="turn_left2" depart="230" departLane="random"/>
<vehicle id="car_339" type="car" route="left" depart="230" departLane="random"/>
<vehicle id="bus_340" type="bus" route="left" depart="231" departLane="random"/>
<vehicle id="car_341" type="car" route="turn_left4" depart="231" departLane="random"/>
<vehicle id="bus_342" type="bus" route="turn_left3" depart="231" departLane="random"/>
<vehicle id="bus_343" type="bus" route="turn_left2" depart="231" departLane="random"/>