<routes>
        <vType id="typeWE" accel="0.8" decel="4.5" sigma="0.5" length="5" minGap="2.5" maxSpeed="16.67" guiShape="passenger"/>
        <vType id="typeNS" accel="0.8" decel="4.5" sigma="0.5" length="7" minGap="3" maxSpeed="25" guiShape="bus"/>

        <route id="right" edges="51o 1i 2o 52i" />
        <route id="left" edges="52o 2i 1o 51i" />
        <route id="down" edges="54o 4i 3o 53i" />
        <route id="up" edges="53o 3i 4o 54i" />

        <route id="turn_left1" edges="51o 1i 4o 54i" />
        <route id="turn_left2" edges="52o 2i 3o 53i" />
        <route id="turn_left3" edges="53o 3i 1o 51i" />
        <route id="turn_left4" edges="54o 4i 2o 52i" />

        <route id="turn_right1" edges="51o 1i 3o 53i" />
        <route id="turn_right2" edges="52o 2i 4o 54i" />
        <route id="turn_right3" edges="53o 3i 2o 52i" />
        <route id="turn_right4" edges="54o 4i 1o 51i" />
        
<vehicle id="turn_right2_0" type="typeWE" route="turn_right2" depart="9" departLane="random"/>
<vehicle id="turn_left2_1" type="typeWE" route="turn_left2" depart="10" departLane="random"/>
<vehicle id="turn_right4_2" type="typeNS" route="turn_right4" depart="12" departLane="random"/>
<vehicle id="turn_right1_3" type="typeWE" route="turn_right1" depart="16" departLane="random"/>
<vehicle id="right_4" type="typeNS" route="right" depart="18" departLane="random"/>
<vehicle id="turn_left2_5" type="typeWE" route="turn_left2" depart="20" departLane="random"/>
<vehicle id="turn_right1_6" type="typeNS" route="turn_right1" depart="21" departLane="random"/>
<vehicle id="turn_right1_7" type="typeNS" route="turn_right1" depart="22" departLane="random"/>
<vehicle id="right_8" type="typeWE" route="right" depart="25" departLane="random"/>
<vehicle id="turn_right3_9" type="typeNS" route="turn_right3" depart="25" departLane="random"/>
<vehicle id="turn_left1_10" type="typeWE" route="turn_left1" depart="26" departLane="random"/>
<vehicle id="turn_right2_11" type="typeWE" route="turn_right2" depart="26" departLane="random"/>
<vehicle id="turn_left3_12" type="typeWE" route="turn_left3" depart="29" departLane="random"/>
<vehicle id="left_13" type="typeWE" route="left" depart="30" departLane="random"/>
<vehicle id="turn_right3_14" type="typeNS" route="turn_right3" depart="31" departLane="random"/>
<vehicle id="right_15" type="typeNS" route="right" depart="34" departLane="random"/>
<vehicle id="up_16" type="typeWE" route="up" depart="37" departLane="random"/>
<vehicle id="turn_left3_17" type="typeWE" route="turn_left3" depart="37" departLane="random"/>
<vehicle id="turn_right4_18" type="typeWE" route="turn_right4" depart="37" departLane="random"/>
<vehicle id="up_19" type="typeWE" route="up" depart="38" departLane="random"/>
<vehicle id="turn_left4_20" type="typeNS" route="turn_left4" depart="40" departLane="random"/>
<vehicle id="down_21" type="typeNS" route="down" depart="44" departLane="random"/>
<vehicle id="right_22" type="typeNS" route="right" depart="49" departLane="random"/>
<vehicle id="turn_left3_23" type="typeWE" route="turn_left3" depart="50" departLane="random"/>
<vehicle id="right_24" type="typeWE" route="right" depart="57" departLane="random"/>
<vehicle id="turn_right1_25" type="typeWE" route="turn_right1" depart="59" departLane="random"/>
<vehicle id="right_26" type="typeWE" route="right" depart="61" departLane="random"/>
<vehicle id="turn_left1_27" type="typeWE" route="turn_left1" depart="61" departLane="random"/>
<vehicle id="down_28" type="typeWE" route="down" depart="63" departLane="random"/>
<vehicle id="up_29" type="typeWE" route="up" depart="64" departLane="random"/>
<vehicle id="turn_right2_30" type="typeWE" route="turn_right2" depart="64" departLane="random"/>
<vehicle id="turn_right2_31" type="typeWE" route="turn_right2" depart="66" departLane="random"/>
<vehicle id="turn_right4_32" type="typeNS" route="turn_right4" depart="66" departLane="random"/>
<vehicle id="turn_left4_33" type="typeNS" route="turn_left4" depart="67" departLane="random"/>
<vehicle id="turn_right1_34" type="typeNS" route="turn_right1" depart="67" departLane="random"/>
<vehicle id="turn_left2_35" type="typeNS" route="turn_left2" depart="68" departLane="random"/>
<vehicle id="left_36" type="typeNS" route="left" depart="72" departLane="random"/>
<vehicle id="up_37" type="typeWE" route="up" depart="72" departLane="random"/>
<vehicle id="turn_right4_38" type="typeWE" route="turn_right4" depart="72" departLane="random"/>
<vehicle id="turn_right1_39" type="typeNS" route="turn_right1" depart="74" departLane="random"/>
<vehicle id="left_40" type="typeWE" route="left" depart="75" departLane="random"/>
<vehicle id="turn_right4_41" type="typeWE" route="turn_right4" depart="75" departLane="random"/>
<vehicle id="turn_left2_42" type="typeNS" route="turn_left2" depart="79" departLane="random"/>
<vehicle id="turn_left2_43" type="typeNS" route="turn_left2" depart="82" departLane="random"/>
<vehicle id="turn_right4_44" type="typeWE" route="turn_right4" depart="85" departLane="random"/>
<vehicle id="turn_left1_45" type="typeNS" route="turn_left1" depart="86" departLane="random"/>
<vehicle id="turn_right2_46" type="typeWE" route="turn_right2" depart="86" departLane="random"/>
<vehicle id="down_47" type="typeWE" route="down" depart="88" departLane="random"/>
<vehicle id="left_48" type="typeWE" route="left" depart="89" departLane="random"/>
<vehicle id="turn_right3_49" type="typeWE" route="turn_right3" depart="93" departLane="random"/>
<vehicle id="right_50" type="typeWE" route="right" depart="94" departLane="random"/>
<vehicle id="turn_left1_51" type="typeWE" route="turn_left1" depart="96" departLane="random"/>
<vehicle id="turn_left1_52" type="typeNS" route="turn_left1" depart="107" departLane="random"/>
<vehicle id="turn_right4_53" type="typeWE" route="turn_right4" depart="107" departLane="random"/>
<vehicle id="turn_left2_54" type="typeNS" route="turn_left2" depart="110" departLane="random"/>
<vehicle id="turn_left1_55" type="typeNS" route="turn_left1" depart="112" departLane="random"/>
<vehicle id="left_56" type="typeNS" route="left" depart="113" departLane="random"/>
<vehicle id="turn_right1_57" type="typeNS" route="turn_right1" depart="116" departLane="random"/>
<vehicle id="turn_right4_58" type="typeWE" route="turn_right4" depart="118" departLane="random"/>
<vehicle id="left_59" type="typeWE" route="left" depart="121" departLane="random"/>
<vehicle id="right_60" type="typeNS" route="right" depart="126" departLane="random"/>
<vehicle id="turn_left2_61" type="typeWE" route="turn_left2" depart="131" departLane="random"/>
<vehicle id="turn_right2_62" type="typeNS" route="turn_right2" depart="133" departLane="random"/>
<vehicle id="turn_right1_63" type="typeWE" route="turn_right1" depart="134" departLane="random"/>
<vehicle id="down_64" type="typeNS" route="down" depart="135" departLane="random"/>
<vehicle id="turn_right2_65" type="typeNS" route="turn_right2" depart="135" departLane="random"/>
<vehicle id="right_66" type="typeNS" route="right" depart="136" departLane="random"/>
<vehicle id="turn_left3_67" type="typeNS" route="turn_left3" depart="138" departLane="random"/>
<vehicle id="right_68" type="typeWE" route="right" depart="140" departLane="random"/>
<vehicle id="turn_right3_69" type="typeWE" route="turn_right3" depart="140" departLane="random"/>
<vehicle id="turn_right2_70" type="typeNS" route="turn_right2" depart="142" departLane="random"/>
<vehicle id="turn_left2_71" type="typeWE" route="turn_left2" depart="144" departLane="random"/>
<vehicle id="left_72" type="typeWE" route="left" depart="145" departLane="random"/>
<vehicle id="left_73" type="typeNS" route="left" depart="149" departLane="random"/>
<vehicle id="turn_left1_74" type="typeWE" route="turn_left1" depart="150" departLane="random"/>
<vehicle id="turn_left4_75" type="typeNS" route="turn_left4" depart="150" departLane="random"/>
<vehicle id="turn_left1_76" type="typeWE" route="turn_left1" depart="153" departLane="random"/>
<vehicle id="turn_left3_77" type="typeNS" route="turn_left3" depart="157" departLane="random"/>
<vehicle id="turn_right4_78" type="typeWE" route="turn_right4" depart="161" departLane="random"/>
<vehicle id="up_79" type="typeNS" route="up" depart="164" departLane="random"/>
<vehicle id="turn_right4_80" type="typeWE" route="turn_right4" depart="164" departLane="random"/>
<vehicle id="turn_right1_81" type="typeWE" route="turn_right1" depart="165" departLane="random"/>
<vehicle id="turn_right3_82" type="typeNS" route="turn_right3" depart="166" departLane="random"/>
<vehicle id="turn_right4_83" type="typeWE" route="turn_right4" depart="167" departLane="random"/>
<vehicle id="up_84" type="typeNS" route="up" depart="168" departLane="random"/>
<vehicle id="turn_right1_85" type="typeWE" route="turn_right1" depart="168" departLane="random"/>
<vehicle id="turn_left3_86" type="typeWE" route="turn_left3" depart="170" departLane="random"/>
<vehicle id="up_87" type="typeNS" route="up" depart="178" departLane="random"/>
<vehicle id="right_88" type="typeWE" route="right" depart="180" departLane="random"/>
<vehicle id="turn_right4_89" type="typeNS" route="turn_right4" depart="180" departLane="random"/>
<vehicle id="turn_left4_90" type="typeNS" route="turn_left4" depart="187" departLane="random"/>
<vehicle id="up_91" type="typeNS" route="up" depart="188" departLane="random"/>
<vehicle id="turn_right1_92" type="typeNS" route="turn_right1" depart="190" departLane="random"/>
<vehicle id="turn_right1_93" type="typeNS" route="turn_right1" depart="191" departLane="random"/>
<vehicle id="left_94" type="typeWE" route="left" depart="194" departLane="random"/>
<vehicle id="up_95" type="typeNS" route="up" depart="197" departLane="random"/>
<vehicle id="turn_left1_96" type="typeWE" route="turn_left1" depart="197" departLane="random"/>
<vehicle id="turn_left4_97" type="typeNS" route="turn_left4" depart="199" departLane="random"/>
<vehicle id="turn_right2_98" type="typeNS" route="turn_right2" depart="199" departLane="random"/>
<vehicle id="turn_right4_99" type="typeNS" route="turn_right4" depart="199" departLane="random"/>
<vehicle id="turn_right4_100" type="typeNS" route="turn_right4" depart="203" departLane="random"/>
<vehicle id="left_101" type="typeWE" route="left" depart="204" departLane="random"/>
<vehicle id="turn_right1_102" type="typeWE" route="turn_right1" depart="206" departLane="random"/>
<vehicle id="turn_left1_103" type="typeWE" route="turn_left1" depart="207" departLane="random"/>
<vehicle id="down_104" type="typeNS" route="down" depart="216" departLane="random"/>
<vehicle id="left_105" type="typeNS" route="left" depart="218" departLane="random"/>
<vehicle id="turn_right1_106" type="typeWE" route="turn_right1" depart="218" departLane="random"/>
<vehicle id="right_107" type="typeWE" route="right" depart="219" departLane="random"/>
<vehicle id="turn_right3_108" type="typeWE" route="turn_right3" depart="222" departLane="random"/>
<vehicle id="turn_right2_109" type="typeNS" route="turn_right2" depart="223" departLane="random"/>
<vehicle id="left_110" type="typeNS" route="left" depart="227" departLane="random"/>
<vehicle id="right_111" type="typeNS" route="right" depart="230" departLane="random"/>
<vehicle id="left_112" type="typeNS" route="left" depart="230" departLane="random"/>
<vehicle id="turn_left1_113" type="typeWE" route="turn_left1" depart="232" departLane="random"/>
<vehicle id="turn_right4_114" type="typeNS" route="turn_right4" depart="232" departLane="random"/>
<vehicle id="right_115" type="typeNS" route="right" depart="236" departLane="random"/>
<vehicle id="up_116" type="typeNS" route="up" depart="236" departLane="random"/>
<vehicle id="turn_left4_117" type="typeWE" route="turn_left4" depart="239" departLane="random"/>
<vehicle id="turn_left3_118" type="typeNS" route="turn_left3" depart="244" departLane="random"/>
<vehicle id="up_119" type="typeNS" route="up" depart="245" departLane="random"/>
<vehicle id="left_120" type="typeNS" route="left" depart="246" departLane="random"/>
<vehicle id="up_121" type="typeWE" route="up" depart="253" departLane="random"/>
<vehicle id="turn_left3_122" type="typeNS" route="turn_left3" depart="256" departLane="random"/>
<vehicle id="left_123" type="typeWE" route="left" depart="257" departLane="random"/>
<vehicle id="turn_left1_124" type="typeWE" route="turn_left1" depart="257" departLane="random"/>
<vehicle id="left_125" type="typeWE" route="left" depart="258" departLane="random"/>
<vehicle id="turn_right4_126" type="typeWE" route="turn_right4" depart="261" departLane="random"/>
<vehicle id="turn_left4_127" type="typeNS" route="turn_left4" depart="263" departLane="random"/>
<vehicle id="right_128" type="typeWE" route="right" depart="264" departLane="random"/>
<vehicle id="turn_right2_129" type="typeNS" route="turn_right2" depart="264" departLane="random"/>
<vehicle id="turn_left2_130" type="typeWE" route="turn_left2" depart="266" departLane="random"/>
<vehicle id="left_131" type="typeWE" route="left" depart="267" departLane="random"/>
<vehicle id="turn_right4_132" type="typeNS" route="turn_right4" depart="269" departLane="random"/>
<vehicle id="turn_left2_133" type="typeNS" route="turn_left2" depart="274" departLane="random"/>
<vehicle id="left_134" type="typeWE" route="left" depart="275" departLane="random"/>
<vehicle id="turn_left3_135" type="typeWE" route="turn_left3" depart="276" departLane="random"/>
<vehicle id="turn_left1_136" type="typeNS" route="turn_left1" depart="277" departLane="random"/>
<vehicle id="right_137" type="typeWE" route="right" depart="278" departLane="random"/>
<vehicle id="turn_left4_138" type="typeWE" route="turn_left4" depart="284" departLane="random"/>
<vehicle id="left_139" type="typeNS" route="left" depart="285" departLane="random"/>
<vehicle id="down_140" type="typeWE" route="down" depart="287" departLane="random"/>
<vehicle id="turn_right3_141" type="typeWE" route="turn_right3" depart="289" departLane="random"/>
<vehicle id="up_142" type="typeWE" route="up" depart="292" departLane="random"/>
<vehicle id="turn_left1_143" type="typeNS" route="turn_left1" depart="292" departLane="random"/>
<vehicle id="turn_right3_144" type="typeNS" route="turn_right3" depart="294" departLane="random"/>
<vehicle id="turn_right2_145" type="typeNS" route="turn_right2" depart="295" departLane="random"/>
<vehicle id="turn_left4_146" type="typeWE" route="turn_left4" depart="298" departLane="random"/>
<vehicle id="left_147" type="typeNS" route="left" depart="299" departLane="random"/>
<vehicle id="turn_left3_148" type="typeNS" route="turn_left3" depart="300" departLane="random"/>
<vehicle id="turn_left4_149" type="typeNS" route="turn_left4" depart="302" departLane="random"/>
<vehicle id="turn_left1_150" type="typeWE" route="turn_left1" depart="303" departLane="random"/>
<vehicle id="left_151" type="typeNS" route="left" depart="305" departLane="random"/>
<vehicle id="turn_left2_152" type="typeWE" route="turn_left2" depart="305" departLane="random"/>
<vehicle id="left_153" type="typeWE" route="left" depart="307" departLane="random"/>
<vehicle id="turn_right4_154" type="typeWE" route="turn_right4" depart="308" departLane="random"/>
<vehicle id="turn_right1_155" type="typeNS" route="turn_right1" depart="309" departLane="random"/>
<vehicle id="up_156" type="typeNS" route="up" depart="310" departLane="random"/>
<vehicle id="turn_left1_157" type="typeNS" route="turn_left1" depart="313" departLane="random"/>
<vehicle id="turn_left1_158" type="typeNS" route="turn_left1" depart="315" departLane="random"/>
<vehicle id="right_159" type="typeNS" route="right" depart="317" departLane="random"/>
<vehicle id="turn_left2_160" type="typeWE" route="turn_left2" depart="317" departLane="random"/>
<vehicle id="turn_right1_161" type="typeWE" route="turn_right1" depart="317" departLane="random"/>
<vehicle id="turn_left4_162" type="typeWE" route="turn_left4" depart="320" departLane="random"/>
<vehicle id="turn_left3_163" type="typeWE" route="turn_left3" depart="321" departLane="random"/>
<vehicle id="right_164" type="typeWE" route="right" depart="322" departLane="random"/>
<vehicle id="turn_left4_165" type="typeNS" route="turn_left4" depart="323" departLane="random"/>
<vehicle id="right_166" type="typeWE" route="right" depart="325" departLane="random"/>
<vehicle id="left_167" type="typeWE" route="left" depart="328" departLane="random"/>
<vehicle id="turn_left2_168" type="typeWE" route="turn_left2" depart="328" departLane="random"/>
<vehicle id="turn_left4_169" type="typeWE" route="turn_left4" depart="329" departLane="random"/>
<vehicle id="turn_right1_170" type="typeWE" route="turn_right1" depart="329" departLane="random"/>
<vehicle id="turn_right1_171" type="typeWE" route="turn_right1" depart="330" departLane="random"/>
<vehicle id="right_172" type="typeNS" route="right" depart="332" departLane="random"/>
<vehicle id="turn_left1_173" type="typeNS" route="turn_left1" depart="335" departLane="random"/>
<vehicle id="turn_left4_174" type="typeWE" route="turn_left4" depart="335" departLane="random"/>
<vehicle id="turn_left2_175" type="typeWE" route="turn_left2" depart="337" departLane="random"/>
<vehicle id="turn_right1_176" type="typeWE" route="turn_right1" depart="346" departLane="random"/>
<vehicle id="turn_right1_177" type="typeNS" route="turn_right1" depart="349" departLane="random"/>
<vehicle id="right_178" type="typeNS" route="right" depart="353" departLane="random"/>
<vehicle id="turn_right1_179" type="typeWE" route="turn_right1" depart="353" departLane="random"/>
<vehicle id="right_180" type="typeWE" route="right" depart="354" departLane="random"/>
<vehicle id="up_181" type="typeWE" route="up" depart="357" departLane="random"/>
<vehicle id="turn_right2_182" type="typeWE" route="turn_right2" depart="358" departLane="random"/>
<vehicle id="turn_left1_183" type="typeNS" route="turn_left1" depart="363" departLane="random"/>
<vehicle id="turn_left3_184" type="typeWE" route="turn_left3" depart="363" departLane="random"/>
<vehicle id="left_185" type="typeWE" route="left" depart="365" departLane="random"/>
<vehicle id="up_186" type="typeNS" route="up" depart="366" departLane="random"/>
<vehicle id="turn_left3_187" type="typeWE" route="turn_left3" depart="366" departLane="random"/>
<vehicle id="left_188" type="typeNS" route="left" depart="368" departLane="random"/>
<vehicle id="turn_right3_189" type="typeNS" route="turn_right3" depart="377" departLane="random"/>
<vehicle id="turn_right4_190" type="typeWE" route="turn_right4" depart="379" departLane="random"/>
<vehicle id="turn_right4_191" type="typeWE" route="turn_right4" depart="385" departLane="random"/>
<vehicle id="turn_left2_192" type="typeWE" route="turn_left2" depart="391" departLane="random"/>
<vehicle id="left_193" type="typeWE" route="left" depart="394" departLane="random"/>
<vehicle id="turn_right4_194" type="typeNS" route="turn_right4" depart="395" departLane="random"/>
<vehicle id="turn_left3_195" type="typeWE" route="turn_left3" depart="397" departLane="random"/>
<vehicle id="turn_left2_196" type="typeWE" route="turn_left2" depart="398" departLane="random"/>
<vehicle id="turn_left1_197" type="typeNS" route="turn_left1" depart="401" departLane="random"/>
<vehicle id="turn_left4_198" type="typeNS" route="turn_left4" depart="404" departLane="random"/>
<vehicle id="right_199" type="typeWE" route="right" depart="406" departLane="random"/>
<vehicle id="turn_left4_200" type="typeWE" route="turn_left4" depart="408" departLane="random"/>
<vehicle id="turn_right1_201" type="typeWE" route="turn_right1" depart="408" departLane="random"/>
<vehicle id="turn_left1_202" type="typeWE" route="turn_left1" depart="412" departLane="random"/>
<vehicle id="turn_left1_203" type="typeNS" route="turn_left1" depart="417" departLane="random"/>
<vehicle id="turn_left4_204" type="typeNS" route="turn_left4" depart="421" departLane="random"/>
<vehicle id="right_205" type="typeNS" route="right" depart="422" departLane="random"/>
<vehicle id="right_206" type="typeWE" route="right" depart="426" departLane="random"/>
<vehicle id="down_207" type="typeWE" route="down" depart="426" departLane="random"/>
<vehicle id="turn_left2_208" type="typeWE" route="turn_left2" depart="428" departLane="random"/>
<vehicle id="turn_right1_209" type="typeWE" route="turn_right1" depart="429" departLane="random"/>
<vehicle id="down_210" type="typeWE" route="down" depart="431" departLane="random"/>
<vehicle id="left_211" type="typeWE" route="left" depart="432" departLane="random"/>
<vehicle id="up_212" type="typeWE" route="up" depart="436" departLane="random"/>
<vehicle id="turn_left1_213" type="typeWE" route="turn_left1" depart="438" departLane="random"/>
<vehicle id="down_214" type="typeWE" route="down" depart="439" departLane="random"/>
<vehicle id="down_215" type="typeNS" route="down" depart="440" departLane="random"/>
<vehicle id="left_216" type="typeNS" route="left" depart="442" departLane="random"/>
<vehicle id="turn_left4_217" type="typeNS" route="turn_left4" depart="442" departLane="random"/>
<vehicle id="turn_right2_218" type="typeWE" route="turn_right2" depart="444" departLane="random"/>
<vehicle id="left_219" type="typeNS" route="left" depart="452" departLane="random"/>
<vehicle id="turn_right2_220" type="typeWE" route="turn_right2" depart="454" departLane="random"/>
<vehicle id="right_221" type="typeWE" route="right" depart="455" departLane="random"/>
<vehicle id="turn_left2_222" type="typeWE" route="turn_left2" depart="459" departLane="random"/>
<vehicle id="turn_right2_223" type="typeNS" route="turn_right2" depart="459" departLane="random"/>
<vehicle id="up_224" type="typeNS" route="up" depart="461" departLane="random"/>
<vehicle id="down_225" type="typeWE" route="down" depart="462" departLane="random"/>
<vehicle id="turn_right1_226" type="typeWE" route="turn_right1" depart="462" departLane="random"/>
<vehicle id="turn_right3_227" type="typeWE" route="turn_right3" depart="464" departLane="random"/>
<vehicle id="turn_left4_228" type="typeWE" route="turn_left4" depart="469" departLane="random"/>
<vehicle id="right_229" type="typeNS" route="right" depart="470" departLane="random"/>
<vehicle id="down_230" type="typeNS" route="down" depart="472" departLane="random"/>
<vehicle id="turn_right4_231" type="typeWE" route="turn_right4" depart="478" departLane="random"/>
<vehicle id="turn_left4_232" type="typeWE" route="turn_left4" depart="480" departLane="random"/>
<vehicle id="turn_right4_233" type="typeNS" route="turn_right4" depart="485" departLane="random"/>
<vehicle id="turn_left4_234" type="typeNS" route="turn_left4" depart="486" departLane="random"/>
<vehicle id="turn_right1_235" type="typeNS" route="turn_right1" depart="486" departLane="random"/>
<vehicle id="right_236" type="typeWE" route="right" depart="487" departLane="random"/>
<vehicle id="left_237" type="typeNS" route="left" depart="488" departLane="random"/>
<vehicle id="turn_left1_238" type="typeNS" route="turn_left1" depart="489" departLane="random"/>
<vehicle id="left_239" type="typeNS" route="left" depart="492" departLane="random"/>
<vehicle id="turn_right2_240" type="typeWE" route="turn_right2" depart="493" departLane="random"/>
<vehicle id="turn_right1_241" type="typeWE" route="turn_right1" depart="494" departLane="random"/>
<vehicle id="turn_left3_242" type="typeNS" route="turn_left3" depart="496" departLane="random"/>
<vehicle id="turn_left1_243" type="typeNS" route="turn_left1" depart="497" departLane="random"/>
<vehicle id="turn_left2_244" type="typeWE" route="turn_left2" depart="497" departLane="random"/>
<vehicle id="up_245" type="typeWE" route="up" depart="499" departLane="random"/>
<vehicle id="right_246" type="typeNS" route="right" depart="502" departLane="random"/>
<vehicle id="turn_left3_247" type="typeWE" route="turn_left3" depart="503" departLane="random"/>
<vehicle id="down_248" type="typeNS" route="down" depart="504" departLane="random"/>
<vehicle id="turn_left3_249" type="typeNS" route="turn_left3" depart="504" departLane="random"/>
<vehicle id="turn_left4_250" type="typeWE" route="turn_left4" depart="504" departLane="random"/>
<vehicle id="left_251" type="typeNS" route="left" depart="507" departLane="random"/>
<vehicle id="turn_left1_252" type="typeNS" route="turn_left1" depart="507" departLane="random"/>
<vehicle id="down_253" type="typeNS" route="down" depart="511" departLane="random"/>
<vehicle id="right_254" type="typeWE" route="right" depart="513" departLane="random"/>
<vehicle id="turn_left1_255" type="typeNS" route="turn_left1" depart="513" departLane="random"/>
<vehicle id="turn_right4_256" type="typeNS" route="turn_right4" depart="513" departLane="random"/>
<vehicle id="turn_left2_257" type="typeWE" route="turn_left2" depart="514" departLane="random"/>
<vehicle id="left_258" type="typeNS" route="left" depart="517" departLane="random"/>
<vehicle id="turn_left3_259" type="typeNS" route="turn_left3" depart="518" departLane="random"/>
<vehicle id="turn_left4_260" type="typeNS" route="turn_left4" depart="518" departLane="random"/>
<vehicle id="turn_left1_261" type="typeNS" route="turn_left1" depart="519" departLane="random"/>
<vehicle id="right_262" type="typeNS" route="right" depart="529" departLane="random"/>
<vehicle id="turn_left1_263" type="typeNS" route="turn_left1" depart="536" departLane="random"/>
<vehicle id="left_264" type="typeNS" route="left" depart="539" departLane="random"/>
<vehicle id="turn_left3_265" type="typeNS" route="turn_left3" depart="539" departLane="random"/>
<vehicle id="turn_right3_266" type="typeWE" route="turn_right3" depart="539" departLane="random"/>
<vehicle id="turn_right4_267" type="typeNS" route="turn_right4" depart="539" departLane="random"/>
<vehicle id="turn_left3_268" type="typeWE" route="turn_left3" depart="540" departLane="random"/>
<vehicle id="turn_right4_269" type="typeWE" route="turn_right4" depart="541" departLane="random"/>
<vehicle id="right_270" type="typeWE" route="right" depart="542" departLane="random"/>
<vehicle id="turn_right4_271" type="typeWE" route="turn_right4" depart="544" departLane="random"/>
<vehicle id="turn_right1_272" type="typeNS" route="turn_right1" depart="546" departLane="random"/>
<vehicle id="down_273" type="typeWE" route="down" depart="547" departLane="random"/>
<vehicle id="turn_left3_274" type="typeNS" route="turn_left3" depart="549" departLane="random"/>
<vehicle id="turn_left3_275" type="typeNS" route="turn_left3" depart="552" departLane="random"/>
<vehicle id="left_276" type="typeNS" route="left" depart="553" departLane="random"/>
<vehicle id="turn_right4_277" type="typeWE" route="turn_right4" depart="554" departLane="random"/>
<vehicle id="turn_left2_278" type="typeNS" route="turn_left2" depart="559" departLane="random"/>
<vehicle id="turn_left4_279" type="typeWE" route="turn_left4" depart="563" departLane="random"/>
<vehicle id="turn_right4_280" type="typeNS" route="turn_right4" depart="563" departLane="random"/>
<vehicle id="up_281" type="typeWE" route="up" depart="564" departLane="random"/>
<vehicle id="turn_left2_282" type="typeNS" route="turn_left2" depart="564" departLane="random"/>
<vehicle id="up_283" type="typeWE" route="up" depart="565" departLane="random"/>
<vehicle id="turn_right1_284" type="typeNS" route="turn_right1" depart="569" departLane="random"/>
<vehicle id="turn_right4_285" type="typeNS" route="turn_right4" depart="571" departLane="random"/>
<vehicle id="turn_right2_286" type="typeWE" route="turn_right2" depart="577" departLane="random"/>
<vehicle id="turn_right4_287" type="typeWE" route="turn_right4" depart="577" departLane="random"/>
<vehicle id="turn_left4_288" type="typeNS" route="turn_left4" depart="578" departLane="random"/>
<vehicle id="right_289" type="typeNS" route="right" depart="580" departLane="random"/>
<vehicle id="turn_right3_290" type="typeNS" route="turn_right3" depart="584" departLane="random"/>
<vehicle id="turn_right2_291" type="typeNS" route="turn_right2" depart="585" departLane="random"/>
<vehicle id="turn_left1_292" type="typeNS" route="turn_left1" depart="592" departLane="random"/>
<vehicle id="right_293" type="typeNS" route="right" depart="610" departLane="random"/>
<vehicle id="turn_left1_294" type="typeNS" route="turn_left1" depart="615" departLane="random"/>
<vehicle id="turn_right2_295" type="typeWE" route="turn_right2" depart="616" departLane="random"/>
<vehicle id="turn_left4_296" type="typeNS" route="turn_left4" depart="617" departLane="random"/>
<vehicle id="turn_left2_297" type="typeNS" route="turn_left2" depart="618" departLane="random"/>
<vehicle id="right_298" type="typeNS" route="right" depart="619" departLane="random"/>
<vehicle id="turn_left4_299" type="typeWE" route="turn_left4" depart="620" departLane="random"/>
<vehicle id="turn_right1_300" type="typeNS" route="turn_right1" depart="622" departLane="random"/>
<vehicle id="turn_left1_301" type="typeWE" route="turn_left1" depart="623" departLane="random"/>
<vehicle id="down_302" type="typeNS" route="down" depart="633" departLane="random"/>
<vehicle id="turn_left4_303" type="typeNS" route="turn_left4" depart="633" departLane="random"/>
<vehicle id="turn_left2_304" type="typeNS" route="turn_left2" depart="634" departLane="random"/>
<vehicle id="turn_left3_305" type="typeNS" route="turn_left3" depart="637" departLane="random"/>
<vehicle id="turn_right4_306" type="typeWE" route="turn_right4" depart="640" departLane="random"/>
<vehicle id="left_307" type="typeNS" route="left" depart="645" departLane="random"/>
<vehicle id="turn_left3_308" type="typeWE" route="turn_left3" depart="646" departLane="random"/>
<vehicle id="turn_left4_309" type="typeNS" route="turn_left4" depart="649" departLane="random"/>
<vehicle id="up_310" type="typeNS" route="up" depart="650" departLane="random"/>
<vehicle id="right_311" type="typeWE" route="right" depart="652" departLane="random"/>
<vehicle id="turn_left1_312" type="typeNS" route="turn_left1" depart="656" departLane="random"/>